19
 C1(N23)=CC=NC2=NC=NC3=CC=C1 1,3,3a1,4-tetraazaphenalene
 C	1.0567822368	0.3766504195	0.0827723724
 N	-0.1718738565	-0.2733570033	-0.0025089734
 C	2.2026161726	-0.4465296078	0.2361361695
 C	2.0379986179	-1.798200506	0.290032013
 N	0.8477131872	-2.4254020879	0.2072767805
 C	-0.2363053949	-1.6945389283	0.0646601313
 N	-1.4383134851	-2.2944359628	-0.0206261377
 C	-2.4960155002	-1.5183156442	-0.1630309403
 N	-2.5431015607	-0.1938701048	-0.2359913254
 C	-1.3655475147	0.4424222055	-0.1549473886
 C	-1.2986864868	1.8406915468	-0.2207016044
 C	-0.0829248492	2.4876072017	-0.1365112518
 C	1.0940624519	1.7672680071	0.0145498432
 H	3.1752554979	0.0218650588	0.3060311657
 H	2.8994115992	-2.450814455	0.4070613642
 H	-3.4545539683	-2.0297357641	-0.2293301331
 H	-2.2379924439	2.3628936482	-0.3385362584
 H	-0.0463018794	3.570889619	-0.1889219157
 H	2.0577771763	2.2549123574	0.0825860889
