61
 CC1=C(F)C=CC(C2=CC3=CC(C4=CC=C(F)C(C)=C4)=CC(N35)=CC(C6=CC=C(F)C(C)=C6
 C	-2.9579176111	-6.8878444453	-0.2254423543
 C	-3.3516541683	-5.5171652232	0.2518087194
 C	-4.6053216715	-5.3024510489	0.8194719561
 F	-5.4395614278	-6.3515812837	0.9339935631
 C	-5.0268166104	-4.0626813528	1.2672151999
 C	-4.165333764	-2.9790188053	1.1466152987
 C	-2.8954744137	-3.1406372583	0.5872586488
 C	-1.97146662	-1.9884946677	0.459386887
 C	-0.6120228242	-2.1420059613	0.6907044731
 C	0.2800388264	-1.0633288705	0.5733046012
 C	1.6550855876	-1.2101095577	0.8206504881
 C	2.5306677967	-0.1394012969	0.7114442203
 C	3.9784675024	-0.3156513828	0.9766357112
 C	4.7067330442	0.6708783526	1.6459888371
 C	6.0630973539	0.500115904	1.8952019687
 C	6.6789408222	-0.6619591721	1.4644112537
 F	7.9925606999	-0.8268973126	1.7030795744
 C	6.0000844417	-1.674563543	0.7907951939
 C	6.7302447702	-2.909294401	0.3392135126
 C	4.6415912163	-1.4754411271	0.5605347912
 C	2.0246942942	1.0999872424	0.3471792797
 C	0.6559397489	1.2897509136	0.0945123501
 N	-0.2183770736	0.1988968443	0.2160609817
 C	0.1388369806	2.5418998682	-0.2767837595
 C	-1.2142762514	2.7244311295	-0.5232596428
 C	-1.7390528422	4.0538064785	-0.9168031683
 C	-2.963319241	4.5124197817	-0.4244555233
 C	-3.4498329096	5.7605600137	-0.7938065883
 C	-2.7018350678	6.537686845	-1.6608455684
 F	-3.1733002129	7.7451647584	-2.0206674141
 C	-1.4774525363	6.1268119905	-2.1825543636
 C	-0.7182865658	7.0144915167	-3.1298057669
 C	-1.0152815879	4.8737067716	-1.7897457504
 C	-2.0674278087	1.6382574172	-0.3919031397
 C	-1.5911082881	0.3702876367	-0.0195209794
 C	-2.4492124938	-0.7348705976	0.1059456858
 C	-2.5104950228	-4.4126012677	0.1491707045
 H	-3.6468181195	-7.2504316116	-0.993877895
 H	-2.9810832653	-7.6114769325	0.5945898162
 H	-1.9501618992	-6.8773808564	-0.6456921828
 H	-6.0118277634	-3.9613021531	1.7078325616
 H	-4.4728582415	-2.0048578209	1.5122528677
 H	-0.2005916198	-3.0910488908	1.0100515161
 H	1.9980761002	-2.1852582187	1.1422235183
 H	4.2046489241	1.5668653521	1.9958289196
 H	6.6441502561	1.2479202326	2.4223500919
 H	7.5452952491	-2.656813996	-0.3452610119
 H	7.1750776264	-3.4358330392	1.1886370615
 H	6.0522677484	-3.5951049228	-0.1729412031
 H	4.0868399298	-2.2369886794	0.0195383983
 H	2.676448466	1.9527858478	0.2060803177
 H	0.8345132993	3.3700626991	-0.3229180349
 H	-3.5277878697	3.9000032228	0.2709508851
 H	-4.3918204915	6.1398907589	-0.4150486904
 H	0.2134204111	6.5394541069	-3.4436853578
 H	-0.4750332314	7.9726259397	-2.6613750242
 H	-1.3098797611	7.2342745859	-4.0232570172
 H	-0.0732283214	4.5143322262	-2.1944113255
 H	-3.1234852378	1.724027464	-0.6140405653
 H	-3.4950468128	-0.5773948814	-0.1250826114
 H	-1.5332714484	-4.5415053224	-0.3077349155
