32
 C12=CCC3C1=C(C=C3C4=CC=CC=C4)C=CC=C2 3-phenyl-2,2a-dihydrocyclopenta[c
 C	-2.5657706849	-0.9921938166	-0.5019687867
 C	-1.9381460148	-2.1845300626	-0.6319745512
 C	-0.4309736789	-2.0503052883	-0.4512793719
 C	-0.2134621682	-0.5236640546	-0.6452122954
 C	-1.5562314276	0.0245799706	-0.3200978751
 C	-1.4702711881	1.1921366821	0.3604250019
 C	-0.0396473295	1.4310202299	0.5892153983
 C	0.7145822128	0.4116292241	0.0984866341
 C	2.1736799901	0.2732686916	0.1206062689
 C	2.8041541687	-0.7132092561	-0.6493532397
 C	4.1866796833	-0.8600152817	-0.6361899456
 C	4.9721583373	-0.0273948124	0.1535851634
 C	4.3596766026	0.9522449532	0.9327265075
 C	2.9799749458	1.0993793293	0.9182826628
 C	-2.5959468269	1.9661761309	0.8353974029
 C	-3.8999693778	1.6483577138	0.6664109456
 C	-4.5151407458	0.4866623405	0.0268631139
 C	-3.9821887404	-0.6521164708	-0.4690710047
 H	-2.4289673504	-3.140088753	-0.7804036416
 H	-0.1350477915	-2.3576380466	0.5594428251
 H	0.1440697665	-2.6606479052	-1.1545753566
 H	-0.0324843455	-0.3524674291	-1.7191818682
 H	0.3428929954	2.3128735106	1.0929203034
 H	2.2055045838	-1.3712207676	-1.2715234976
 H	4.6504519777	-1.6297797184	-1.2451381226
 H	6.0511035748	-0.1425406266	0.1675146603
 H	4.9616969087	1.6028802872	1.5594404153
 H	2.5195555633	1.8569112167	1.5445940067
 H	-2.3699731033	2.891676021	1.3602705579
 H	-4.6204780522	2.3570930347	1.0669857948
 H	-5.6003788762	0.5487607989	-0.0195987188
 H	-4.671103609	-1.3978378455	-0.8592974807
