22
 C1(N23)=CC=CC2=CC=CC3=CC=C1 pyrido[2,1,6-de]quinolizine
 C	0.0447536218	1.404049371	-0.0744341506
 N	0.000006674	0.0000339693	0.000076119
 C	-1.1592763946	2.1310745058	-0.0273477014
 C	-2.370805612	1.4815734248	0.0902331359
 C	-2.4182137932	0.1045078931	0.163519288
 C	-1.2370859077	-0.6589388574	0.119898934
 C	-1.2602928929	-2.0641617122	0.1928900734
 C	-0.0889895171	-2.7917837442	0.1480807518
 C	1.1260865649	-2.1485678064	0.030559735
 C	1.192328736	-0.7450725727	-0.0453409596
 C	2.4195813958	-0.0668909096	-0.1655162257
 C	2.4598043993	1.3102144034	-0.2383099254
 C	1.2921191913	2.0440425623	-0.1940826328
 H	-1.0916321871	3.2093998961	-0.0868995092
 H	-3.2911731325	2.0563103982	0.1252553635
 H	-3.3538532808	-0.4311831732	0.2560321959
 H	-2.2271123232	-2.5414097556	0.2846072984
 H	-0.1232534978	-3.8753553234	0.205513226
 H	2.0601491769	-2.6936059624	-0.006982823
 H	3.3187790439	-0.6680010913	-0.1977769772
 H	3.4143505845	1.8190274382	-0.3308338214
 H	1.2937291542	3.1247370512	-0.2491413958
