18
 C1(N23)=CC=NC3=NC=NC2=NC=C1 1,3,3a1,4,9-pentaazaphenalene
 C	-1.0358597594	0.2978836623	0.0403243836
 N	0.2972667646	-0.0855891268	-0.0115638378
 C	-1.9916109788	-0.7201559428	0.180047859
 C	-1.552742534	-2.0212052792	0.2561214428
 N	-0.2713567381	-2.3945866475	0.2066265741
 C	0.6530974564	-1.4527649979	0.0748782148
 N	1.9446460718	-1.795513052	0.0223294515
 C	2.8204878025	-0.8110035951	-0.1097998146
 N	2.5933626438	0.4907366209	-0.1990027866
 C	1.3172777855	0.8866727857	-0.151624508
 N	1.0259271388	2.1776647214	-0.2360068104
 C	-0.2581771631	2.5419297907	-0.1856216541
 C	-1.3133564736	1.670306216	-0.0513701294
 H	-3.0402843257	-0.4594158827	0.2241081743
 H	-2.270630455	-2.8308432739	0.3646363871
 H	3.8655110675	-1.1115448262	-0.1504872474
 H	-0.4428678862	3.611119521	-0.2590008266
 H	-2.3406904172	2.0063093058	-0.0145948732
