48
 C1(N2B(N3B(N45)N67)N8B6N9%10)=CC=CC2=CC3=CC4=CC=CC5=CC7=CC%10=CC=CC9=C
 C	3.4937719614	-1.4023854969	-0.0364312456
 N	2.8765190212	-0.1436270557	-0.0028146578
 B	1.4356276889	-0.0716354375	-0.0013881871
 N	0.7777916914	1.2037755955	0.0326449798
 B	-0.6557465709	1.2786851482	0.034210347
 N	-1.3138449907	2.5620607707	0.0685035386
 N	-1.4317506944	0.0714813054	0.0014396525
 N	0.653965355	-1.2752185806	-0.034027795
 B	-0.7798768971	-1.2070095554	-0.0327549956
 N	-1.5626574134	-2.4184035038	-0.0655621097
 C	4.8943996744	-1.4535912587	-0.0373278508
 C	5.6309589085	-0.2809547583	-0.0055665785
 C	5.0154259795	0.9584785613	0.0275282339
 C	3.6157237837	1.047726268	0.0294646091
 C	2.9294714054	2.2662943646	0.0619224257
 C	1.5411382012	2.3856523696	0.0646256685
 C	0.862318218	3.6009888714	0.0971321914
 C	-0.5319844773	3.7258173486	0.1000560533
 C	-1.1879903739	4.9639327868	0.1329607578
 C	-2.5721961037	5.0152603417	0.1338096764
 C	-3.3381838898	3.8626777756	0.1026106647
 C	-2.7156028765	2.606330971	0.0691785316
 C	-3.4281617893	1.4029559413	0.0365093897
 C	-2.8373498434	0.141403311	0.0028289604
 C	-3.5508352701	-1.0539181629	-0.0295948116
 C	-2.9617892299	-2.3234100817	-0.0635148407
 C	-3.7064112866	-3.5103750014	-0.0956353892
 C	-3.0587710829	-4.7343662606	-0.1282977424
 C	-1.6772296835	-4.8212225275	-0.1301662352
 C	-0.9001191142	-3.6540671268	-0.098516599
 C	0.4986939601	-3.6692319851	-0.0984319525
 C	1.2961975787	-2.5270144076	-0.0674342491
 C	2.688487651	-2.5470127465	-0.0674823895
 H	5.3733242873	-2.4238787247	-0.0632440546
 H	6.7155832733	-0.3351059156	-0.0066637214
 H	5.5888772391	1.8761483706	0.0523723287
 H	3.5212266785	3.1719309572	0.0864414174
 H	1.4449389672	4.5125128402	0.1218636376
 H	-0.5868641465	5.863691983	0.1572699573
 H	-3.0676271719	5.9812848128	0.1595367325
 H	-4.4199263614	3.9002553969	0.1031901577
 H	-4.5086337697	1.4624160946	0.0376191516
 H	-4.631840792	-1.0053101917	-0.028705686
 H	-4.7864770308	-3.4398140888	-0.0941107416
 H	-3.6479848093	-5.646261321	-0.1530408057
 H	-1.1689213966	-5.7764893162	-0.1556816527
 H	0.9874474299	-4.6343138661	-0.1242014312
 H	3.1868881121	-3.5071448152	-0.0931233404
