42
 C1(N2B(N3B(N45)N67)N8B6N9%10)=NC=NC2=CC3=CC4=NC=NC5=CC7=CC%10=NC=NC9=C
 C	-1.5410686914	3.4116848328	0.1844132422
 N	-0.2805045816	2.8350583474	-0.0124529459
 B	-0.1403392515	1.4177828091	-0.0064061776
 N	1.1494989108	0.8341238847	-0.2083948112
 B	1.2811795463	-0.5899383443	-0.2005837993
 N	2.5619734748	-1.1797021397	-0.4007245883
 N	0.1413381549	-1.4284757844	0.0062860324
 N	-1.2909616974	0.5944055904	0.2019427857
 B	-1.1409561344	-0.8278160469	0.2066742963
 N	-2.2814611153	-1.6553212847	0.4136518451
 N	-1.6601794555	4.74846852	0.1759313964
 C	-0.5375231334	5.4322588393	-0.0241429572
 N	0.6975965066	4.979911446	-0.2192385682
 C	0.8426625511	3.6457532285	-0.2156914236
 C	2.0817460267	3.0369134991	-0.408862366
 C	2.2723686109	1.6488258242	-0.4118644442
 C	3.5096845995	1.0199398333	-0.6044036625
 C	3.6811346777	-0.3633866486	-0.6041106524
 N	4.8825965306	-0.9311791456	-0.7921435679
 C	4.9091803886	-2.2603461909	-0.7681640596
 N	3.9088733466	-3.1168235656	-0.5835391961
 C	2.696634011	-2.5732200182	-0.3937670166
 C	1.5604527255	-3.3545496529	-0.1888477962
 C	0.2794804154	-2.8237723503	0.0125001929
 C	-0.8729312582	-3.5935183985	0.2198073092
 C	-2.1402501199	-3.0482750597	0.4188165381
 N	-3.2226829287	-3.8172896449	0.6143132092
 C	-4.3715191706	-3.171964175	0.7923051318
 N	-4.6060731289	-1.8631224298	0.8045525499
 C	-3.5391100782	-1.0725598774	0.6106022588
 C	-3.6420785339	0.3176294584	0.5985777135
 C	-2.5519161561	1.1749722954	0.3992807352
 C	-2.6368948494	2.5735860179	0.3840166161
 H	-0.6446514216	6.5151980899	-0.0288893823
 H	2.9269127026	3.6925026239	-0.5630075057
 H	4.394510643	1.6195082586	-0.7641106223
 H	5.887868456	-2.7109293953	-0.9211869476
 H	1.7005346828	-4.4261137522	-0.1898386376
 H	-0.8003776712	-4.6717225763	0.2300363051
 H	-5.2430057876	-3.8042540575	0.9504052393
 H	-4.6274115728	0.7335557045	0.7534545672
 H	-3.5943302238	3.0522014353	0.5328031638
