31
 C1(N2B(N34)N56)=NC=NC2=CC3=CC=CC4=CC6=CC=NC5=C1 1,3,3a1,4a1,5,8a1-hexa
 C	-0.7121909059	2.6365206356	-0.0380092624
 N	0.2853046262	1.6454460324	-0.0550536692
 B	-0.0737591354	0.2675706737	-0.0037851702
 N	0.9545509033	-0.7444013456	-0.0216133536
 N	-1.4571182014	-0.1023506017	0.0652310271
 N	-0.3576254147	3.9361632425	-0.0870461501
 C	0.9409882878	4.1858082945	-0.1492909387
 N	1.9599533424	3.3281255141	-0.1707468002
 C	1.6330550417	2.0293311839	-0.1229157697
 C	2.5903336965	1.0271531864	-0.137945963
 C	2.2929276299	-0.3427916708	-0.089530285
 C	3.2802180359	-1.3397739743	-0.1059882096
 C	2.9204629778	-2.6725229537	-0.055867022
 C	1.5872870357	-3.0582302826	0.0114128355
 C	0.5829635756	-2.0913479294	0.0293828018
 C	-0.791112358	-2.4017456886	0.096457727
 C	-1.7993957502	-1.4582144561	0.1152031998
 C	-3.1820528484	-1.747304092	0.1820889022
 C	-4.0721356071	-0.7054378766	0.1931989025
 N	-3.7404767958	0.5977715347	0.1450497582
 C	-2.4506535034	0.8962308051	0.0819052116
 C	-2.0318209128	2.2395612812	0.0289737714
 H	1.2161070358	5.2383451592	-0.1885327334
 H	3.6244365848	1.33629634	-0.1903952243
 H	4.3165376417	-1.0324032763	-0.1584854635
 H	3.6940350287	-3.4338391746	-0.069275322
 H	1.3009628861	-4.1011866887	0.0508409668
 H	-1.0682267192	-3.4466878475	0.1355401182
 H	-3.5076914532	-2.7781909241	0.2228903517
 H	-5.1391773791	-0.9089589169	0.2443054319
 H	-2.7966873458	3.001063816	0.0420003215
