30
 C1(N2B(N34)N56)=NC=NC2=CC3=NC=CC4=CC6=CC=NC5=C1 1,3,3a1,4a1,5,8a1,11-h
 C	1.968060741	-1.7393671341	-0.3768348485
 N	1.5915553738	-0.3978634519	-0.2094399563
 B	0.2226334807	-0.0556382517	-0.0292975549
 N	-0.1537945346	1.3183645654	0.141482879
 N	-0.7759352918	-1.085961643	-0.0188473017
 N	3.2634393963	-2.0491671723	-0.5460487067
 C	4.1131579094	-1.0281399795	-0.5417680456
 N	3.8628692887	0.2678118614	-0.3923651514
 C	2.5743076839	0.6038921332	-0.2208258534
 C	2.1711245279	1.9194949876	-0.052886706
 C	0.8386185351	2.3155383453	0.1287997255
 N	0.5300312699	3.6032943041	0.2840126935
 C	-0.7594257662	3.9109810619	0.4521999175
 C	-1.7976325329	3.0030422137	0.4780401316
 C	-1.4996257417	1.6408812721	0.3171998603
 C	-2.4399943657	0.6099387227	0.3212795208
 C	-2.1149940851	-0.7373742742	0.1588133231
 C	-3.0388066596	-1.7940570799	0.1587552047
 C	-2.5681069189	-3.0792168678	-0.0139790182
 N	-1.2858580775	-3.4143805652	-0.1844387586
 C	-0.3887552584	-2.4279347359	-0.1875445607
 C	0.9743360968	-2.7057770681	-0.3612248605
 H	5.160547504	-1.2899676496	-0.6797334586
 H	2.9265695879	2.6903601623	-0.0618274653
 H	-0.9714356448	4.970740084	0.5753752354
 H	-2.8239113654	3.3145720669	0.6180312167
 H	-3.480884882	0.8701307718	0.4583592098
 H	-4.0917447433	-1.5858660587	0.2924326578
 H	-3.2695416499	-3.9105952311	-0.0175510125
 H	1.2631961224	-3.7377353897	-0.4901683167
