28
 FC1=NC2=CC3=NC=NC4=CC(N5B(N62)N43)=NC(F)=NC5=CC6=N1 2,10-difluoro-1,3,
 F	1.0729655632	5.1834660007	-0.5003678182
 C	0.8053177766	3.9030778281	-0.3765227147
 N	-0.477359117	3.6161418131	-0.2813240684
 C	-0.7638667295	2.3145681509	-0.1545675278
 C	-2.0707389235	1.8454477614	-0.0415773097
 C	-2.3950650107	0.4932078552	0.0917797572
 N	-3.6600662961	0.0688649569	0.1981720795
 C	-3.8278101972	-1.2450313051	0.3190133143
 N	-2.9075703953	-2.2053203072	0.3489569342
 C	-1.6351953444	-1.8041766185	0.2441308651
 C	-0.5657233016	-2.7031531703	0.2613112827
 C	0.7672415291	-2.3134318413	0.1542275164
 N	1.0538836464	-0.9496206458	0.0221463487
 B	-0.0060527215	-0.0019817566	0.000757073
 N	0.2817234799	1.3840809135	-0.1332345174
 N	-1.3546490309	-0.4406883807	0.112990745
 N	1.7759623724	-3.193798168	0.1730429147
 C	2.9805595161	-2.6715816945	0.0616829121
 F	3.9612958172	-3.5457601635	0.0803488452
 N	3.3668213876	-1.4164339507	-0.0675436649
 C	2.3792126673	-0.5153311251	-0.0890211737
 C	2.6207408393	0.852556958	-0.2184380895
 C	1.6090813335	1.8125044557	-0.2434223816
 N	1.8663021521	3.1188552229	-0.368885006
 H	-2.8765230833	2.5637807256	-0.0578347187
 H	-4.8589056083	-1.5805358064	0.4049292748
 H	-0.7857392989	-3.7551957074	0.3630213602
 H	3.6441569775	1.1854879993	-0.3037722324
