19
 C1(N23)=CC=NC2=CC=NC3=CC=N1 1,3a1,4,7-tetraazaphenalene
 C	-1.3962200299	0.1656795917	-0.0503354501
 N	0.0000114231	0.0000576618	0.0001143301
 C	-2.1584418468	-1.0348837046	-0.0993770182
 C	-1.5193941038	-2.2365386576	-0.0950044255
 N	-0.1754133096	-2.3846948331	-0.0459498947
 C	0.5554696371	-1.2926095658	-0.0000759805
 C	1.9761117918	-1.3535385707	0.0528191066
 C	2.6962853506	-0.1996067789	0.0991911103
 N	2.1518389066	1.0390394921	0.0990586614
 C	0.840780516	1.1269876293	0.0506864545
 C	0.1823509488	2.3884141821	0.0464646148
 C	-1.1768968002	2.4360931268	-0.0043811936
 N	-1.9764149018	1.345652226	-0.0529816921
 H	-3.2339957535	-0.9355053966	-0.1387160135
 H	-2.0886554411	-3.1613294687	-0.1315183846
 H	2.4284581935	-2.3351708671	0.053784037
 H	3.7816277139	-0.2310420639	0.1401377758
 H	0.8054828656	3.2707335838	0.0846663822
 H	-1.6929851644	3.3922624175	-0.0085824199
