49
 ClC(C=N1)=C(C)N=C1C2=NC(N34)=NC(C5=NC(C)=C(Cl)C=N5)=NC4=NC(C6=NC(C)=C(
 Cl	-3.9063905968	7.1202031629	1.2742735494
 C	-3.0965229336	5.6014834846	1.0454900626
 C	-3.7153315217	4.419353388	1.4282233002
 N	-3.130327403	3.237241929	1.2612892554
 C	-1.8187206911	5.5329979839	0.4774359535
 C	-1.0631787106	6.7431262021	0.0227814071
 N	-1.2358525787	4.3412440855	0.3315682354
 C	-1.9134534552	3.2648813273	0.7227915479
 C	-1.2297405728	1.9412774442	0.5371138215
 N	-2.0243580713	0.9033336719	0.2912476943
 C	-1.4337107016	-0.2757251973	0.1252801351
 N	-0.0417838308	-0.365129023	0.2318016017
 N	-2.1374080451	-1.3711023239	-0.1400834081
 C	-1.4532851816	-2.5046009953	-0.2721053568
 C	-2.2638319861	-3.7327302211	-0.5690942557
 N	-3.3688378789	-3.5524860751	-1.2882787146
 C	-4.1093171748	-4.6254642144	-1.5741824461
 C	-5.3446132889	-4.4258925825	-2.3964520361
 C	-3.7064366054	-5.8782113754	-1.0960801708
 Cl	-4.6302559048	-7.3120379919	-1.4208519921
 C	-2.5399067565	-5.9578915846	-0.3479397471
 N	-1.8023202476	-4.8834293612	-0.0852269973
 N	-0.1389110693	-2.6825369397	-0.1712304537
 C	0.5930547138	-1.6025427484	0.0815000812
 N	1.9160197928	-1.6717568188	0.1873318872
 C	2.5576773748	-0.5317989906	0.4281064256
 C	4.0515804071	-0.6280780238	0.5410070501
 N	4.7452319398	0.4343101964	0.1397934243
 C	6.0762241315	0.3776493167	0.2207759805
 C	6.8580665281	1.5664553813	-0.2455283799
 C	6.6790173163	-0.7767382589	0.7349137586
 Cl	8.4040910517	-0.9111518346	0.8781381498
 C	5.8644919943	-1.8276763227	1.1337579555
 N	4.5405028293	-1.7646777283	1.0313513871
 N	2.037052071	0.6830652746	0.5811421649
 C	0.715230467	0.7829812677	0.4874615487
 N	0.09689336	1.9497924807	0.6374709746
 H	-4.7050215621	4.4310284547	1.8770139555
 H	-0.0969286918	6.4313294153	-0.3719352326
 H	-1.6203067535	7.2801068061	-0.7508293722
 H	-0.911729767	7.438943536	0.8533797933
 H	-6.2314385722	-4.7569817883	-1.8478452958
 H	-5.2965827903	-5.0140109661	-3.3178523773
 H	-5.441969509	-3.3688610984	-2.6411017885
 H	-2.1959758199	-6.9112339994	0.0442649062
 H	7.5356417488	1.2900113004	-1.0589768365
 H	6.1661690797	2.3339120591	-0.5904276973
 H	7.4736928518	1.9666739744	0.56553904
 H	6.2938110138	-2.7386556788	1.5421917577
