55
 CC1=CC(C)=CC=C1C2=NC(N34)=NC(C5=C(C)C=C(C)C=C5)=NC3=NC(OCC(F)(F)F)=NC4
 C	-4.5622848584	-1.8816942558	0.5136923495
 C	-3.7543607854	-3.1165566523	0.2002429703
 C	-4.438434064	-4.3335304437	0.1437604723
 C	-3.8156770513	-5.5509158931	-0.1207930448
 C	-4.6089345119	-6.8277219729	-0.2023395327
 C	-2.4343927263	-5.5526741376	-0.3247756845
 C	-1.723824851	-4.3692221855	-0.2688136276
 C	-2.3567588441	-3.1405244235	-0.0182245034
 C	-1.494266564	-1.9406152353	-0.0023839362
 N	-0.1740443881	-2.1556818942	0.0100636078
 C	0.6353050859	-1.1036627996	0.0059933515
 N	0.0805515374	0.1806038357	0.0040777446
 N	1.9495932066	-1.2416714932	0.0044906029
 C	2.7040652652	-0.1298952507	0.0138445722
 C	4.1674225696	-0.3322378879	0.0261132706
 C	5.1128893362	0.7064043355	-0.1465896559
 C	4.7763760917	2.1558963261	-0.3925221072
 C	6.4667159064	0.3617009252	-0.1001214088
 C	6.9201229053	-0.9379739567	0.1085888955
 C	8.3915124588	-1.2549005485	0.1383053257
 C	5.9697395948	-1.9480882313	0.2737522087
 C	4.622857178	-1.6464563827	0.2273102627
 N	2.2334161801	1.1224724161	0.0247986848
 C	0.9210937257	1.300506458	0.0126636624
 N	0.3882623288	2.5147193876	0.0105547107
 C	-0.9406275489	2.5645432105	-0.0013309522
 O	-1.4224399341	3.8007823668	-0.0038989843
 C	-2.8317024858	3.9514437871	-0.017512864
 C	-3.1108658409	5.4404629671	-0.0166026846
 F	-2.618331299	6.0393631292	1.0718431816
 F	-2.5967585518	6.0447847531	-1.0919939788
 F	-4.441406346	5.6259625448	-0.0293819684
 N	-1.8159473506	1.5638412485	-0.0107499672
 C	-1.3047826383	0.3328727182	-0.0074939293
 N	-2.0831202617	-0.7330616214	-0.0182432192
 H	-5.5922722942	-2.1638769098	0.7459272116
 H	-4.149433944	-1.3325371797	1.3623075787
 H	-4.5654522441	-1.1821148128	-0.3239885294
 H	-5.5113891524	-4.3264047299	0.3189299599
 H	-4.0854340628	-7.650063785	0.2933912724
 H	-5.5932550997	-6.7195042153	0.2593079853
 H	-4.7606810579	-7.1199310731	-1.2471326153
 H	-1.9158182374	-6.4856572494	-0.5256066847
 H	-0.6511298999	-4.3674157448	-0.4193770738
 H	4.2537158542	2.5967135184	0.4581456755
 H	5.6932126801	2.7207542088	-0.5789357292
 H	4.1082754185	2.2772678079	-1.2473567372
 H	7.200539999	1.1523050136	-0.2352628558
 H	8.9983979901	-0.3469326525	0.1639639154
 H	8.6447018756	-1.8605837477	1.013540711
 H	8.6811597984	-1.8282221204	-0.7487518066
 H	6.2890759349	-2.9730690111	0.4390254694
 H	3.883313154	-2.4281064342	0.350554643
 H	-3.2701288823	3.5018957754	-0.9108112586
 H	-3.2878182986	3.4975431979	0.8646380437
