63
 CC1=CC(C)=CC=C1C2=NC(N34)=NC(C5=C(C)C=C(C)C=C5)=NC3=NC(N6CCCCC6)=NC4=N
 C	-5.0886764003	0.4998357506	-0.8546212347
 C	-4.9164246171	-0.9362163272	-0.4256495493
 C	-6.0676456206	-1.7239723676	-0.3402202658
 C	-6.0509670491	-3.0666872772	0.0289697059
 C	-7.3271992338	-3.8586546821	0.1372172486
 C	-4.8171279814	-3.6544106319	0.3119423753
 C	-3.6570500715	-2.9068877271	0.2300166482
 C	-3.6783570081	-1.5493238565	-0.1251850153
 C	-2.3736414383	-0.8464777339	-0.1589557131
 N	-1.282779997	-1.6266170537	-0.0924257794
 C	-0.0971411337	-1.0365441196	-0.1046380988
 N	-0.0269365098	0.3562678525	-0.1940129472
 N	1.0251394145	-1.7387073414	-0.0418301791
 C	2.187218474	-1.0681968126	-0.0562956524
 C	3.4153736794	-1.892834257	0.0367922637
 C	4.7176214371	-1.4055610412	-0.2189112494
 C	5.0439953245	0.0014357494	-0.6546067318
 C	5.7830669112	-2.2992769488	-0.0798804526
 C	5.6220608089	-3.629178645	0.3007639811
 C	6.8103256199	-4.5390708385	0.4676117062
 C	4.3269741278	-4.0917976766	0.5389345823
 C	3.2487162109	-3.2373302374	0.4030128259
 N	2.3218190408	0.2582451465	-0.1289636154
 C	1.2167494241	0.9956781301	-0.2079019986
 N	1.2768491817	2.309529965	-0.2975305868
 C	0.1039779948	2.9757969582	-0.3567562975
 N	0.1819027256	4.3115592445	-0.4418855719
 C	1.4824464491	4.9900628112	-0.4337615807
 C	1.3131967099	6.4526852838	-0.0107159471
 C	0.3075538663	6.5531215314	1.137064238
 C	-1.0923195227	6.0948297643	0.6757253704
 C	-0.9997691373	5.1611487934	-0.5395233941
 N	-1.1303910196	2.4256392153	-0.3376518123
 C	-1.2015559438	1.1138669341	-0.2593308544
 N	-2.3758875816	0.4855321033	-0.234297203
 H	-6.1294640232	0.6786531657	-1.1375420409
 H	-4.8112729394	1.1909933549	-0.0567865651
 H	-4.445236204	0.7487981703	-1.7008467971
 H	-7.0230216638	-1.2622405181	-0.5780240186
 H	-7.2020425993	-4.8673561631	-0.2665915583
 H	-8.146924	-3.3742554373	-0.3990316511
 H	-7.6297429716	-3.9617187938	1.1851172335
 H	-4.7661714595	-4.7022015853	0.5941822277
 H	-2.6962052589	-3.3612599069	0.439191127
 H	4.4573607576	0.3016225405	-1.5251334863
 H	4.808682096	0.7262004515	0.1267351618
 H	6.1062874547	0.0744309409	-0.9025105877
 H	6.7871923499	-1.9348755918	-0.2834341009
 H	7.6947827933	-4.1406777219	-0.0355309926
 H	6.6055800931	-5.5347262049	0.0638908166
 H	7.0570620363	-4.661216817	1.5280022102
 H	4.163959405	-5.1260305145	0.828586309
 H	2.2409190797	-3.5944795447	0.5769925916
 H	2.1297297797	4.4641845679	0.2704900153
 H	1.9517366525	4.909544003	-1.4215144263
 H	0.9797848542	7.0667582962	-0.8554055917
 H	2.2917347027	6.8391227101	0.2875917308
 H	0.2686704474	7.5727730718	1.5298134463
 H	0.6542028333	5.9139660531	1.9573051385
 H	-1.7094783072	6.9558052282	0.3987478565
 H	-1.6075835073	5.5818831224	1.4927411993
 H	-0.9183249105	5.7433573758	-1.4651414887
 H	-1.8738544454	4.5194252389	-0.6231352934
