43
 FC(COC1=NC2=NC(C3=CC=CC=C3)=NC(N42)=NC(C5=CC=CC=C5)=NC4=N1)(F)F 2,5-di
 F	-2.1240798376	7.0554461317	1.3115377057
 C	-0.9522420463	6.3991032676	1.2865829425
 C	-1.2206223322	4.947334207	0.9462816704
 O	0.0374906822	4.2934807866	0.9304531818
 C	0.0497107895	2.9975735917	0.6518079445
 N	-1.1173979653	2.4088418291	0.4084525534
 C	-1.0771448644	1.1071379531	0.1315099495
 N	-2.178151861	0.4244553109	-0.1255626145
 C	-2.0458351765	-0.8842007346	-0.3948030612
 C	-3.2852367574	-1.6337186349	-0.6802307858
 C	-3.2245825312	-3.001382815	-0.9694513425
 C	-4.3906990456	-3.7050391524	-1.2376604455
 C	-5.6205609787	-3.0506174943	-1.2190293119
 C	-5.6846710026	-1.689067749	-0.9314761206
 C	-4.5219100006	-0.9797059321	-0.6623710093
 N	-0.901392691	-1.5691837993	-0.4286059811
 C	0.2230462818	-0.9085005863	-0.1739215993
 N	0.1597044538	0.4583827066	0.1147823802
 N	1.3984117325	-1.5166626577	-0.1880443073
 C	2.4826282127	-0.7765923419	0.0797360144
 C	3.7858331439	-1.4697382369	0.0601746327
 C	3.8493298271	-2.8372966299	-0.2286239197
 C	5.0770776419	-3.485157597	-0.2459529543
 C	6.2447717396	-2.7747829381	0.0238536597
 C	6.1850887826	-1.4130165125	0.3117874033
 C	4.960577503	-0.7592706555	0.3307084324
 N	2.4970315904	0.5298346561	0.3631983482
 C	1.3376505738	1.1713256075	0.386091418
 N	1.2685741865	2.4657285077	0.6585524974
 F	-0.3756657709	6.5315101977	2.4847921364
 F	-0.1658363233	6.986181918	0.3796202393
 H	-1.709955622	4.8883391933	-0.0279936282
 H	-1.8821596208	4.5151780532	1.6997728624
 H	-2.2587439877	-3.492986095	-0.9792589471
 H	-4.34184402	-4.765437083	-1.4617192689
 H	-6.5311025589	-3.603036799	-1.4290992519
 H	-6.6428299492	-1.1803462592	-0.9172026356
 H	-4.5524834445	0.0798222861	-0.4366767197
 H	2.9306292402	-3.3734723954	-0.4359956312
 H	5.1246418799	-4.5456364802	-0.4700749141
 H	7.203557119	-3.2836704839	0.0096843975
 H	7.0949361956	-0.860645051	0.5217702019
 H	4.8944568117	0.2994889103	0.5526038785
