49
 CC(C=C1)=CC=C1C2=NC3=NC(OCC(F)(F)F)=NC4=NC(C5=CC=C(C)C=C5)=NC(N34)=N2 
 C	-7.0270296745	-4.0726240929	-0.3422754894
 C	-5.8195181941	-3.1775205315	-0.2516290502
 C	-5.9600825055	-1.7864177913	-0.235455645
 C	-4.8508743302	-0.9563288571	-0.1826740976
 C	-4.5303690904	-3.7172784434	-0.207971566
 C	-3.413758337	-2.8971710529	-0.1550128503
 C	-3.5652892241	-1.5065699695	-0.142367283
 C	-2.3826691883	-0.630356174	-0.0835832394
 N	-2.6055222327	0.6888721192	-0.0738177381
 C	-1.5546187376	1.4936056984	-0.0223602999
 N	-1.6922190452	2.8115647442	-0.0093754989
 C	-0.5642287956	3.5134060736	0.0434537625
 O	-0.7584068846	4.8255757179	0.0545425432
 C	0.3903575982	5.6542257119	0.1102321496
 C	-0.1042707841	7.0861023453	0.1106283314
 F	-0.797055868	7.3748294395	-0.9950926888
 F	0.9593029165	7.90527897	0.162926386
 F	-0.8806991719	7.3453835046	1.1669652357
 N	0.6908680241	3.0775730463	0.0855685948
 C	0.858973622	1.7562330219	0.0736018954
 N	2.0629596957	1.2166997737	0.1121174199
 C	2.1412741364	-0.1246147272	0.0964569584
 C	3.492113499	-0.7108734761	0.1388189714
 C	4.6196382453	0.1150370331	0.1946252481
 C	5.8884068551	-0.4426038965	0.2367963899
 C	6.0670578485	-1.8291983049	0.2224182666
 C	7.4483977701	-2.428471338	0.2352462008
 C	4.9333083192	-2.646068405	0.1695785761
 C	3.6598783562	-2.099695867	0.1270659911
 N	1.1113846534	-0.9718945805	0.045041074
 C	-0.1128234602	-0.4567260737	0.0054483542
 N	-0.2684266717	0.9333401247	0.019027799
 N	-1.1848875392	-1.2305759517	-0.0463477261
 H	-7.9009637874	-3.6119272349	0.1252882458
 H	-7.2799806881	-4.2712002809	-1.3896857646
 H	-6.846606247	-5.0362609971	0.1409304538
 H	-6.9544432233	-1.349908292	-0.2631353755
 H	-4.9618600279	0.1218080571	-0.1688488224
 H	-4.4028161203	-4.7960839005	-0.2140948616
 H	-2.4150841981	-3.3170403074	-0.1197769238
 H	1.0364527927	5.4951664283	-0.7554827987
 H	0.9678866382	5.4709806814	1.0185766864
 H	4.4834161916	1.1902304028	0.2072877606
 H	6.7576951159	0.207196397	0.2833464786
 H	7.4530850159	-3.4096616404	0.7167501259
 H	7.8187447946	-2.5613675556	-0.7873165526
 H	8.1578791742	-1.7843059209	0.7608693064
 H	5.0531167069	-3.7257352665	0.1633672149
 H	2.7823060574	-2.7346283615	0.0875498591
