26
 O=C([O-])C1CCC(C[NH3+])CC1 4-(ammoniomethyl)cyclohexane-1-carboxylate
 O	-1.4084877818	-0.2960836411	2.3287409288
 C	-2.273115556	-0.0099623345	1.3383811321
 O	-3.4531353941	0.1017701008	1.555736721
 C	-1.6302538323	0.1557510469	-0.0369791466
 C	-0.9649510623	-1.1837585601	-0.4413786527
 C	0.1234493799	-1.028582294	-1.496644476
 C	1.171408584	0.0146305202	-1.0918562385
 C	2.017730364	-0.3938422386	0.1300143519
 N	1.3774003355	-0.2332990735	1.4550137304
 C	0.4793321178	1.3807135496	-0.9809217746
 C	-0.7035115	1.4043231328	-0.0030284227
 H	-2.4466385222	0.3525129785	-0.7357435075
 H	-0.5272626856	-1.670531667	0.4334115622
 H	-1.7489362147	-1.8572459254	-0.8018109833
 H	-0.3211877474	-0.71708547	-2.4508755077
 H	0.6016069836	-1.9985551561	-1.6764294485
 H	1.8948630721	0.0842236197	-1.9148022796
 H	2.2752935248	-1.4528860814	0.0191335188
 H	2.9652507798	0.1623831695	0.0924192355
 H	1.8672914945	-0.8170261611	2.1264581101
 H	-0.4885491126	-0.3558178559	1.9834581772
 H	1.5170336065	0.7202329437	1.7773607042
 H	1.1986513491	2.1590379893	-0.6972801621
 H	0.1245475771	1.6462479837	-1.98413844
 H	-1.3200432466	2.2853106843	-0.2063629578
 H	-0.3277865131	1.5475387397	1.0111608761
