20
 O=C([O-])C1=CC(C(N)N)=CC=C1 3-(diaminomethyl)benzoate
 O	3.5811781122	0.0245967133	-0.0180623237
 C	2.5517823106	-0.6667026753	0.0225281942
 O	2.3587154065	-1.8981154916	0.0799848586
 C	1.2291064845	0.1603086112	-0.0140893722
 C	0.0202643088	-0.5156447984	0.0055957685
 C	-1.191965111	0.1843676792	-0.0377730128
 C	-2.4363776214	-0.5589387382	-0.0194696079
 N	-3.5430731562	-0.0212391258	0.4913686267
 N	-2.4822725427	-1.787928698	-0.5200623558
 C	-1.1921305622	1.5915806306	-0.0955201273
 C	0.0190990021	2.2649020771	-0.1098843401
 C	1.2205957498	1.5517010538	-0.0689911443
 H	0.1092112457	-1.597451664	0.1030735052
 H	-3.4750893905	0.8469744812	0.99678566
 H	-4.4417350299	-0.4731672954	0.4403591127
 H	-1.6516024857	-2.164282616	-0.9529017451
 H	-2.1207202202	2.1484553964	-0.1904209049
 H	0.0272478544	3.3484169073	-0.1720193268
 H	2.1882288007	2.0450542128	-0.0852383132
 H	-3.2677161256	-2.4036627501	-0.3833848218
