13
 O=S(c1c[nH+][nH]c1)([O-])=O 1H-pyrazol-2-ium-4-sulfonate
 O	2.5184056656	-1.2459753767	0.5733649195
 S	2.2005873402	0.0826537627	0.0452740156
 C	0.3738259753	0.0135957083	0.0191748533
 C	-0.5086537225	1.0743671967	0.1371284502
 N	-1.7644698471	0.6043641405	0.0345847391
 N	-1.7097906415	-0.7311744781	-0.1405754986
 C	-0.4191440069	-1.1090627206	-0.1493269965
 O	2.5157506227	0.3053011692	-1.3653421057
 O	2.4213203281	1.2203860829	0.9405768099
 H	-0.3049106332	2.1221506415	0.3001403991
 H	-2.6456120507	1.0914757546	0.0879242703
 H	-2.5483271077	-1.2847623182	-0.223665354
 H	-0.1289819222	-2.1433195628	-0.2592585022
