22
 oc1cc(CC[NH3+])ccc1O 2-(3,4-dihydroxyphenyl)ethan-1-aminium
 O	-2.5055802127	1.5667217991	-0.169977494
 C	-1.5931107262	0.7617042152	0.0074004386
 C	-1.9033071068	-0.6845214409	-0.1082696791
 O	-3.190106099	-0.9455022013	-0.4002310377
 C	-0.9583455265	-1.6162828918	0.0717922126
 C	0.4532156261	-1.2491796753	0.3843842584
 C	0.7426222466	0.2140480628	0.5070373215
 C	2.1653449148	0.6207032958	0.7917125054
 C	3.0633461262	0.6182587722	-0.4577512869
 N	3.278694926	-0.7338093307	-0.9639536868
 C	-0.2200931595	1.1368076841	0.3266166343
 H	-3.6032521232	-0.0652221685	-0.463779858
 H	-1.2103431525	-2.6682167605	-0.0162993587
 H	0.7722912752	-1.7412465862	1.3160208151
 H	2.6045932226	-0.0480373438	1.5434562193
 H	2.1759852251	1.6292363626	1.2169814965
 H	3.9962460085	1.1477841263	-0.2060544303
 H	2.5682947535	1.2001082152	-1.2420189925
 H	3.7064213464	-0.7046008311	-1.882420664
 H	1.1441778974	-1.6405222795	-0.3790605405
 H	3.9184695567	-1.2365943701	-0.3570575152
 H	-0.0175066884	2.2008008962	0.410799982
