18
 BrC1=CC(Br)=C2C1=CC=CC=C2 1,3-dibromoazulene
 Br	2.796213751	-2.6405148376	0.2291781866
 C	2.0120645965	-0.9434210243	0.0838299782
 C	2.7229062951	0.2522241821	-0.0161416295
 C	1.8034187285	1.2968513189	-0.1064482939
 Br	2.2607434849	3.1089434475	-0.2591558547
 C	0.496400114	0.7909459656	-0.066082988
 C	0.6339762474	-0.6862385346	0.0593820297
 C	-0.3829029434	-1.6265566939	0.1371279589
 C	-1.759892617	-1.4273221219	0.1175949476
 C	-2.4625972954	-0.2281118244	0.0145984947
 C	-1.9933775168	1.0796547582	-0.095345326
 C	-0.6767372519	1.5284017681	-0.1308464535
 H	3.7995334544	0.3519528645	-0.0225240134
 H	-0.0461326636	-2.6578216444	0.2251839151
 H	-2.3663549388	-2.3251851143	0.192532447
 H	-3.5458065168	-0.3284500467	0.0210198139
 H	-2.7552782991	1.8507654213	-0.1621710853
 H	-0.5361766289	2.6038821129	-0.2217321272
