21
 C1(N23)=NC=C4C2=C(C=C4)C=CC3=NC=N1 4,4a1,5,7-tetraazacyclopenta[cd]phe
 C	1.227420072	1.5569253229	-0.0611095527
 N	0.0695160783	0.7668290816	0.0437039154
 N	2.4149135422	0.9829089513	-0.2647939485
 C	2.5192168239	-0.3478437216	-0.3716617329
 C	1.4299899582	-1.2048436675	-0.2809861098
 C	0.1916533229	-0.5670140031	-0.0658462057
 C	-0.8670935769	-1.4766031301	0.0169784726
 C	-0.2464575528	-2.7683481585	-0.1584119726
 C	1.1106810261	-2.6089587017	-0.3345374342
 C	-2.1388009298	-0.926674844	0.2306183003
 C	-2.2818541158	0.4481063992	0.3459008485
 C	-1.1841337904	1.3329835999	0.2559817481
 N	-1.279750061	2.6627831937	0.3615963992
 C	-0.1415703969	3.3421892903	0.2518215388
 N	1.0899200774	2.8794045949	0.0497822683
 H	3.527974231	-0.7208336933	-0.5367402601
 H	-0.7706259597	-3.71482837	-0.151891599
 H	1.8237219903	-3.4074292409	-0.4883895681
 H	-3.0188179654	-1.5580566185	0.308123791
 H	-3.2477423319	0.9067538923	0.5110117756
 H	-0.2281604417	4.4225498227	0.3388493257
