20
 [NH3+]C(C(O)=O)C1CC1C([O-])=O 2-(ammonio(carboxy)methyl)cyclopropane-1
 N	-0.991065495	-0.7824970374	2.1043906739
 C	-0.827286966	-0.1432287553	0.796700685
 C	-1.6936463361	-0.9103440351	-0.2293767196
 O	-1.5357796227	-0.8428331612	-1.4289518348
 O	-2.6578656249	-1.626731425	0.3227069668
 C	0.5801579544	0.0027774722	0.281714584
 C	1.4260717155	1.2286054104	0.510821251
 C	0.8128596911	0.9936011419	-0.8300632862
 C	1.6099873578	0.4955967038	-2.0033584581
 O	2.7980022835	0.6402167103	-2.1375290529
 O	0.8639267813	-0.1676781829	-2.8951959772
 H	-0.3032659525	-1.5199280495	2.2280278209
 H	-0.8537596789	-0.118050634	2.8564724778
 H	-2.509945892	-1.5462034291	1.2919901598
 H	-1.2862891076	0.8523998013	0.8621570585
 H	-0.0227858863	-0.3336114149	-2.5220859756
 H	1.1209632338	-0.9384025147	0.1918776729
 H	1.0214709791	2.036110896	1.1133043457
 H	2.4978995228	1.0847249216	0.5913532826
 H	-0.0496489575	1.5954755814	-1.1049556744
