31
 NC1=CC=CC2=C(C#N)C3=CC=CC(N)=C4C3=C2C1=C4 1,9-diaminoazuleno[2,1,8-ija
 N	2.8925548076	-3.0070972414	0.0279876319
 C	2.5364981442	-1.6824917331	0.0376662704
 C	3.5486909988	-0.7156347984	0.0141176037
 C	3.5340666336	0.6945096962	-0.0090576309
 C	2.5237926858	1.6463945286	-0.0050989735
 C	1.1625850108	1.3303886243	0.0170136101
 C	0.0000000273	2.1645524293	0.0096026114
 C	0.0000000958	3.5779157853	-0.0099848956
 N	-0.0000002316	4.7414353833	-0.0252521069
 C	-1.1625849772	1.3303886462	0.0170140409
 C	-2.5237926785	1.6463945582	-0.0050980404
 C	-3.5340666369	0.6945097272	-0.0090563318
 C	-3.548691005	-0.7156347729	0.014118901
 C	-2.5364981502	-1.6824917184	0.0376671931
 N	-2.8925548305	-3.0070972211	0.0279886847
 C	-1.1504272033	-1.3547409873	0.0332197415
 C	-0.685202673	-0.014371723	0.0363339145
 C	0.6852026906	-0.0143717242	0.0363336627
 C	1.1504272033	-1.3547409931	0.0332193235
 C	-0.0000000027	-2.1855462434	0.0307231354
 H	3.8480325444	-3.243792523	0.238564642
 H	2.2111194485	-3.6780863554	0.3395497963
 H	4.5545070316	-1.1332908621	0.0122611259
 H	4.5371272221	1.1161682643	-0.0275821896
 H	2.8162620921	2.6922375847	-0.0233670008
 H	-2.8162620934	2.692237619	-0.0233659589
 H	-4.5371272294	1.1161683062	-0.0275805224
 H	-4.5545070442	-1.1332908243	0.0122627897
 H	-3.8480324932	-3.2437924921	0.2385660416
 H	-2.2111193674	-3.6780863391	0.3395506
 H	-0.000000017	-3.2673776003	-0.0283196695
