32
 NC1=CC2=CC3C4C2=C(C=C4C=CC(N)=C3)C=C1 4a1,10a-dihydroazuleno[2,1,8-ija
 N	-4.852899084	0.85936967	-0.1504335073
 C	-3.5333307748	0.3921830317	-0.2007098069
 C	-2.5773431477	1.1721054342	-0.7766582741
 C	-1.1557684107	0.8897940004	-0.851794767
 C	-0.0965941896	1.7079448914	-1.0840823747
 C	1.2517829273	0.9848737206	-1.0444657923
 C	0.7943695609	-0.49287113	-0.9816471483
 C	-0.64023043	-0.4380994136	-0.6307741459
 C	-0.9974057275	-1.4975015685	0.1364913997
 C	0.2443764602	-2.2265343369	0.448294887
 C	1.3145587844	-1.5735202739	-0.0748692645
 C	2.7389579644	-1.7493804663	0.1458775767
 C	3.5451371352	-0.7000902657	0.3931753114
 C	3.1614624952	0.7083150968	0.6350143326
 N	4.0683796248	1.3268977691	1.5262407623
 C	2.1432056494	1.408762223	0.0944064474
 C	-2.3228726483	-1.7046235716	0.6708580773
 C	-3.3886820705	-0.8916385253	0.5088470843
 H	-5.559454762	0.1417002163	-0.2189227929
 H	-5.0501003206	1.6328632376	-0.7681917763
 H	-2.9046979071	2.1203969727	-1.1994957759
 H	-0.1679863923	2.7741328618	-1.2762109873
 H	1.7969503801	1.1601799028	-1.9839548131
 H	0.8761092408	-0.9096066548	-1.9991371777
 H	0.2918235439	-3.099299582	1.0918043079
 H	3.165007849	-2.7502301572	0.160860925
 H	4.6005470527	-0.8975244061	0.5708472247
 H	3.7802342584	2.2575532976	1.7978618286
 H	4.2538483912	0.7699464678	2.3510926212
 H	2.005046781	2.43242787	0.4407180507
 H	-2.478706578	-2.6009735904	1.2673861374
 H	-4.3057256559	-1.2075527217	1.0015714302
