20
 C1(N23)=NC=C4C2=C(C=C4)C=NC3=NC=N1 4,4a1,5,7,8-pentaazacyclopenta[cd]p
 C	1.5061388622	-1.1675579675	0.2453530418
 N	0.8037959991	0.0300838459	0.0680517648
 N	0.8412590917	-2.3281872732	0.2984074419
 C	-0.4893874399	-2.3560651129	0.1836361388
 C	-1.2651094555	-1.2094884937	0.0047720182
 C	-0.5297045957	-0.0198259203	-0.0448520743
 C	-1.33257719	1.1122629833	-0.2247136373
 C	-2.6776144633	0.585424772	-0.2927152071
 C	-2.6378095814	-0.7843681697	-0.1573237577
 C	-0.6251050729	2.3143525312	-0.2779947535
 N	0.7042684561	2.3860327663	-0.1675510871
 C	1.435083865	1.277640377	0.003666232
 N	2.7619715424	1.3021661338	0.1184332233
 C	3.3652909437	0.1259553232	0.2849345583
 N	2.8315673434	-1.0928133442	0.3551550513
 H	-0.9378613541	-3.3458251896	0.2393414244
 H	-3.5739690071	1.1751857556	-0.4286154305
 H	-3.4979779907	-1.4398713373	-0.1701401618
 H	-1.1300650657	3.2684285141	-0.4144181955
 H	4.4478051125	0.1664698168	0.3765734088
