19
 C1(N23)=NC=C4C2=C(N=C4)C=NC3=NC=N1 1,4,4a1,5,7,8-hexaazacyclopenta[cd]
 C	1.012241134	-1.4298277444	-0.0571617617
 N	0.604885796	-0.1122688624	0.1596137195
 N	0.135095218	-2.3208626126	-0.5637678489
 C	-1.1119100087	-1.9627818618	-0.8597596574
 C	-1.5951764956	-0.6571333153	-0.6698030624
 C	-0.6505441857	0.2177478217	-0.1463351694
 C	-1.1878188439	1.4898845446	0.0180030829
 N	-2.5088903561	1.4563883106	-0.4033634856
 C	-2.7449347676	0.2161530353	-0.8008997597
 C	-0.3015731961	2.4316080966	0.5406880282
 N	0.9646856502	2.1192249729	0.8546209465
 C	1.436060893	0.882352058	0.678907393
 N	2.6899753789	0.5239001136	0.9769587419
 C	3.013303256	-0.7431728134	0.7471227294
 N	2.2624073759	-1.7385518427	0.2527044452
 H	-1.7376311686	-2.756502144	-1.2624275922
 H	-3.7212764839	-0.0623076847	-1.1785481683
 H	-0.5943950202	3.4631790637	0.7185630343
 H	4.0354958215	-1.0170291383	0.994884394
