54

  H    1.8684322   -6.2914247    2.0145427
  C    2.4307904   -5.5055157    1.5264822
  C    1.7620347   -4.4843509    0.8541058
  H    0.6856929   -4.5466818    0.8477258
  C    2.4670205   -3.4380195    0.1994851
  N    1.7582655   -2.3914900   -0.5231704
  C    3.8851461   -3.4781905    0.2460817
  B    4.6929495   -2.3606143   -0.5003758
  C    4.5419098   -4.5296099    0.9143790
  H    5.6159254   -4.6164364    0.9257849
  C    3.8175044   -5.5294497    1.5546955
  H    4.3343100   -6.3345568    2.0612984
  C    2.4696841   -1.4137689   -1.3337021
  C    3.8837944   -1.3980469   -1.3965726
  C    1.7842683   -0.4000725   -2.0473098
  C    2.4710650    0.5484678   -2.7972373
  C    3.8554919    0.5066201   -2.8856330
  C    4.5922333   -0.4843248   -2.2158337
  C    6.1658063   -1.8538063   -0.2064871
  C    6.7464893   -0.9411937   -1.1233244
  N    6.0352795   -0.5631537   -2.3250578
  C    8.0012368   -0.3766559   -0.8021701
  C    6.8664362   -2.2051416    0.9648769
  C    8.1219495   -1.6633115    1.2324000
  C    8.6845325   -0.7444474    0.3551158
  C    6.7140154   -0.4977885   -3.6325427
  C    6.0106040   -0.2693951   -4.8541108
  H    4.9528454   -0.1282500   -4.9220148
  C    6.6563017   -0.2441641   -6.0936681
  H    6.0868563   -0.0589717   -6.9959899
  C    8.0213110   -0.4712843   -6.1812506
  H    8.5160663   -0.4567558   -7.1438967
  C    8.7413550   -0.7505568   -5.0298180
  H    9.8011715   -0.9615654   -5.1003760
  C    8.1059302   -0.7781444   -3.7852637
  H    8.7535757   -1.0539560   -2.9789264
  C    0.3206861   -2.3639789   -0.4738636
  C   -0.3468666   -2.2485112    0.7610735
  H    0.2194925   -2.1696361    1.6807039
  C   -1.7434625   -2.2257700    0.8147206
  H   -2.2461618   -2.1337868    1.7687975
  C   -2.4909908   -2.3211108   -0.3610679
  H   -3.5723113   -2.3040589   -0.3176712
  C   -1.8432385   -2.4404822   -1.5926393
  H   -2.4235631   -2.5179066   -2.5029340
  C   -0.4466696   -2.4626848   -1.6512346
  H    0.0396462   -2.5648985   -2.6133453
  H    0.7126693   -0.2957272   -2.0219847
  H    1.9231308    1.3248798   -3.3161980
  H    4.3489858    1.2767281   -3.4629620
  H    8.4540802    0.3751268   -1.4342907
  H    6.4506271   -2.8577627    1.7118480
  H    8.6461456   -1.9327912    2.1404501
  H    9.6463033   -0.3016188    0.5801588