96

  C    2.4086183   -5.4957067    1.3918947
  C    1.7659099   -4.4331592    0.7162318
  H    0.6963260   -4.4364316    0.6835411
  C    2.4824149   -3.4012864    0.0466534
  N    1.7961542   -2.3335900   -0.6749307
  C    3.8915140   -3.4739140    0.0734847
  B    4.7155656   -2.3842829   -0.6786404
  C    4.5371501   -4.5340324    0.7225550
  H    5.6130302   -4.6308971    0.7159442
  C    3.8124676   -5.5236456    1.3704290
  H    4.3808989   -6.3003807    1.8566415
  C    2.5344225   -1.3787856   -1.4971747
  C    3.9475922   -1.4114131   -1.5748096
  C    1.8861017   -0.3380754   -2.2045577
  C    2.6077205    0.5840908   -2.9584869
  C    3.9916598    0.4882822   -3.0595885
  C    4.6955572   -0.5326682   -2.3979804
  C    6.1803126   -1.9017644   -0.3617780
  C    6.8308887   -1.0597506   -1.2872549
  N    6.1414157   -0.6799724   -2.5075250
  C    8.1189018   -0.5569498   -0.9503700
  C    6.7926369   -2.2130899    0.8507962
  C    8.0395661   -1.7053414    1.1658858
  C    8.7535230   -0.8648746    0.2832084
  C    6.8252242   -0.6309315   -3.8108292
  C    6.1437196   -0.3308410   -5.0291313
  H    5.0983930   -0.1220346   -5.1009227
  C    6.7962082   -0.3146068   -6.2645472
  H    6.2440126   -0.0708645   -7.1639887
  C    8.1447706   -0.6240496   -6.3514229
  H    8.6442039   -0.6153510   -7.3116901
  C    8.8388100   -0.9786652   -5.2038812
  H    9.8830388   -1.2551399   -5.2757700
  C    8.1954723   -0.9974990   -3.9626738
  H    8.8128181   -1.3370132   -3.1553744
  C    0.3570039   -2.2715129   -0.6254711
  C   -0.3129904   -2.1809988    0.6114264
  H    0.3061165   -2.1359354    1.4914518
  C   -1.7269792   -2.1342203    0.6955039
  C   -2.4473047   -2.1771181   -0.5217782
  H   -3.5232506   -2.1579238   -0.5594242
  C   -1.7904162   -2.2706141   -1.7487341
  H   -2.3646118   -2.3125655   -2.6655110
  C   -0.4019360   -2.3200656   -1.8030836
  H    0.0848209   -2.4070696   -2.7663876
  H    0.8197459   -0.1897154   -2.1683982
  H    2.0869424    1.3841235   -3.4695003
  H    4.5068411    1.2444898   -3.6352480
  H    8.5938081    0.0967111   -1.6500880
  H    6.3009552   -2.8059857    1.6049693
  H    8.4146783   -1.9698823    2.1413284
  N   10.0622099   -0.3495371    0.6783611
  C   -2.4384857   -2.0487394    2.0296096
  C   -1.7474942   -2.2457812    3.2524372
  H   -0.6957188   -2.4732565    3.2941814
  C   -2.4116183   -2.1716032    4.4805744
  H   -1.8643835   -2.3303783    5.4011046
  C   -3.7753135   -1.8970017    4.5272134
  H   -4.2856756   -1.8391679    5.4800538
  C   -4.4809913   -1.6977170    3.3444462
  H   -5.5413284   -1.4819198    3.3813473
  C   -3.8274117   -1.7736209    2.1110843
  H   -4.4357369   -1.5998726    1.2397324
  C    1.6229738   -6.5727135    2.1007119
  C    0.2681131   -6.3780953    2.4659997
  H   -0.2542985   -5.4549366    2.2690748
  C   -0.4498675   -7.3761469    3.1314859
  H   -1.4816149   -7.2042047    3.4100342
  C    0.1570579   -8.5907900    3.4421030
  H   -0.4026052   -9.3620852    3.9552120
  C    1.4867025   -8.8103513    3.0918858
  H    1.9570562   -9.7560704    3.3297652
  C    2.2153909   -7.8159244    2.4338603
  H    3.2364202   -8.0526609    2.1800310
  C   10.6766796   -0.8588827    1.8739647
  C   10.9041064   -2.2365940    2.0551837
  H   10.6360890   -2.9407408    1.2776744
  C   11.4828060   -2.7059269    3.2386153
  H   11.6562887   -3.7655391    3.3719521
  C   11.8315300   -1.8097151    4.2529159
  H   12.2685841   -2.1753959    5.1728450
  C   11.6158629   -0.4407341    4.0808606
  H   11.8799991    0.2532007    4.8685743
  C   11.0519767    0.0343644    2.8947837
  H   10.8784645    1.0973243    2.7790911
  C   10.8109588    0.6665908   -0.0323314
  C   10.2103057    1.7470365   -0.7158414
  H    9.1419495    1.8961150   -0.7163841
  C   10.9954528    2.6896100   -1.3938909
  H   10.5243319    3.5107362   -1.9176070
  C   12.3871416    2.5832677   -1.3940161
  H   12.9915565    3.3121595   -1.9187143
  C   13.0021748    1.5409296   -0.7074649
  H   14.0821459    1.4576144   -0.6986753
  C   12.2274634    0.5983642   -0.0323920
  H   12.7451770   -0.2031060    0.4796424